src/test/resources/netPositionsData/20190618_0030_2D2_HU0.uct
##C 2007.05.01

##N
##ZHU
ASLACK11 SLACK        0 2 400.00    0.00    0.00    0.00    0.00    0.00    0.00                                        
ALOAD111 LOAD         1 2 400.00    0.00    0.00  879.59    0.00    0.00    0.00                                        
ANA_BE11 SHADOW       1 2 400.00    0.00    0.00    0.00    0.00 -163.99    0.00
ASA_GY11 SHADOW       1 2 400.00    0.00    0.00    0.00    0.00 -715.60    0.00
##ZXX
XNA_BE11 CORE         1 0 400.00    0.00    0.00    0.00    0.00    0.00    0.00                                        
XSA_GY11 OUT          1 0 400.00    0.00    0.00    0.00    0.00    0.00    0.00                                        
##L
ANA_BE11 XNA_BE11 1 0   0.00   0.00    0.00   5000
ASA_GY11 XSA_GY11 1 0   0.00   0.00    0.00   5000
##T
##R
